113

C          0.64168       -0.94981        0.04988
C          2.14646       -1.08808       -0.15142
C          3.00458       -0.03445       -0.21934
C          2.62382        1.28762       -0.84401
C          2.86427        2.53156        0.10156
O          3.23049        3.56449       -0.49357
C          2.52989        2.62463        1.73447
C          2.92955        4.11078        2.09407
C          2.71936        4.39626        3.59577
C          3.81751        3.63581        4.23976
C          3.83602        2.13146        4.49149
C          3.37009        1.61566        2.95989
C          2.83041        0.18175        3.09557
C          3.61196       -0.80210        2.14025
C          4.30965       -0.12210        0.69318
C          5.18176        1.22070        0.58894
C          5.55400       -1.03630        0.31480
C          2.70475       -2.14485        1.87766
C          2.73595       -2.35443        0.38048
O          2.65801       -3.46624       -0.51381
C          2.59170       -4.69447        0.02651
O          1.76758       -4.94876        0.88845
C          3.51789       -5.77282       -0.63798
C          5.09255       -5.67406       -0.61347
C          5.75812       -4.51603       -1.36984
C          7.01284       -3.99914       -0.99692
C          7.60324       -2.93654       -1.69725
C          6.95652       -2.38055       -2.79625
C          5.74675       -2.91569       -3.22175
C          5.16546       -3.98455       -2.53141
N          5.74825       -5.97582        0.68438
C          5.34570       -5.43072        1.89295
O          4.35205       -4.73440        1.97141
C          6.14807       -5.69093        3.12751
C          6.06564       -4.71870        4.11601
C          6.73475       -4.89480        5.34097
C          7.47335       -6.08529        5.52704
C          7.53264       -7.05862        4.54379
C          6.84436       -6.84738        3.32652
O          3.16836       -7.05394       -0.05722
O          4.72481       -1.25804        2.96132
O          1.39874        0.06991        3.21520
C          0.86793        0.67017        4.32806
O          0.77149        1.88429        4.46561
C          0.42962       -0.25698        5.40546
C         -0.42198        0.23009        6.41103
C         -0.83343       -0.60300        7.45613
C         -0.36948       -1.91548        7.51809
C          0.51339       -2.39047        6.54887
C          0.91105       -1.56616        5.49333
C          5.24756        2.74498        5.20635
O          4.39923        3.96114        5.50877
O          3.25921        1.21964        5.51940
C          3.58919        1.33973        6.85028
O          3.17307        2.23447        7.56823
C          4.50385        0.22863        7.40289
O          2.26065        5.17446        1.42451
C          0.98898        2.58723        1.61535
O          1.31744        1.28804       -1.49774
C          1.17778        0.63698       -2.70962
O          2.09393        0.16114       -3.36740
C         -0.27978        0.44764       -3.09626
H          0.09281       -0.31129       -0.62911
H          0.47326       -0.50674        1.03777
H          0.13231       -1.91530        0.06530
H          3.34172        1.42696       -1.66914
H          3.99055        4.20586        1.80492
H          1.71889        4.10268        3.91327
H          2.81922        5.46954        3.77573
H          4.63427        3.88828        3.53685
H          4.38062        1.47846        2.62888
H          3.14494       -0.22748        4.05652
H          5.22927        1.53430       -0.46594
H          6.23051        1.09151        0.88741
H          4.90034        2.12883        1.10684
H          5.38547       -2.01536       -0.10136
H          6.17718       -1.18346        1.20932
H          6.21612       -0.56118       -0.41939
H          1.66757       -2.01112        2.21282
H          3.04826       -3.00039        2.45187
H          3.78509       -2.30944        0.28029
H          3.18707       -5.85314       -1.68302
H          5.41488       -6.54920       -1.20190
H          7.55392       -4.38821       -0.13702
H          8.55094       -2.52078       -1.36298
H          7.38857       -1.52993       -3.31721
H          5.24060       -2.49487       -4.08804
H          4.23564       -4.38229       -2.92537
H          6.64125       -6.43524        0.63603
H          5.47951       -3.82079        3.97424
H          6.65968       -4.15301        6.11046
H          8.00747       -6.21932        6.49068
H          8.10699       -7.94910        4.71484
H          6.90554       -7.61083        2.58019
H          3.06704       -6.86795        0.89889
H          4.37085       -1.94654        3.55810
H         -0.76464        1.26477        6.39430
H         -1.50784       -0.22664        8.22040
H         -0.69127       -2.56720        8.32794
H          0.89144       -3.40812        6.61370
H          1.60977       -1.95498        4.76226
H          6.11383        2.99467        4.58232
H          5.62173        2.35084        6.15043
H          4.39160       -0.73395        6.89138
H          4.25176        0.06363        8.45759
H          5.55182        0.53816        7.37361
H          1.96876        4.88001        0.54388
H          0.65500        3.25780        0.80452
H          0.46195        2.94698        2.49261
H          0.60964        1.61219        1.31796
H         -0.92561        1.17610       -2.60049
H         -0.61406       -0.56179       -2.82557
H         -0.40897        0.56845       -4.17769
